98

H         15.74997       -0.29307        4.06471
C         15.86589        0.72453        4.44991
C         15.29372        1.74965        3.46621
C         13.83134        1.53101        3.05158
C         13.43750        0.15485        2.40111
C         14.20913       -0.14320        1.08884
C         14.96752        0.81213        0.38623
C         15.71466        0.48119       -0.75532
C         15.65237       -0.79888       -1.28464
C         14.90013       -1.76105       -0.62755
C         14.22991       -1.44706        0.56491
C         17.33065        0.94515        4.76279
C         17.82243        0.62338        6.04150
C         19.17568        0.76078        6.33393
C         20.06675        1.23068        5.36395
C         19.60194        1.53143        4.09117
C         18.25297        1.36374        3.78378
H         15.28218        0.78751        5.38073
H         15.36782        2.74886        3.92014
H         15.91533        1.79965        2.57602
H         13.25198        1.70337        3.96141
H         13.54361        2.34169        2.36642
H         13.74164       -0.62594        3.11073
H         15.02758        1.84582        0.71178
H         16.34077        1.23219       -1.23157
H         16.18612       -1.04542       -2.19849
H         14.82320       -2.76152       -1.04641
H         13.69891       -2.25203        1.06522
H         17.14397        0.25423        6.80382
H         19.55019        0.51484        7.32459
H         21.12031        1.34476        5.59516
H         20.28707        1.88240        3.32285
H         17.93506        1.58794        2.76874
C         11.83510        0.06618        2.27008
C         11.28351       -1.33312        1.85359
C          9.74638       -1.44456        1.68814
C          9.20905       -2.83991        1.18195
C          7.67651       -2.93934        1.22777
C          6.81357       -1.84242        1.36209
C          5.42176       -1.99298        1.26370
C          4.86504       -3.23827        0.99462
C          5.69078       -4.34975        0.98528
C          7.06790       -4.19970        1.18713
C         11.11798        0.51848        3.54710
C         10.21295        1.58946        3.47566
C          9.58017        2.06712        4.62345
C          9.84029        1.48384        5.85871
C         10.72315        0.40818        5.94700
C         11.35219       -0.07894        4.79734
H         11.56383        0.76290        1.46364
H         11.62851       -2.10276        2.55319
H         11.71255       -1.55330        0.88423
H          9.28072       -1.24565        2.66134
H          9.41053       -0.65052        1.01019
H          9.53625       -3.55265        1.95611
H          7.19485       -0.84415        1.55730
H          4.77109       -1.13083        1.38111
H          3.79831       -3.34487        0.81991
H          5.27757       -5.33572        0.78596
H          7.67814       -5.09948        1.23016
H         10.00311        2.06871        2.52152
H          8.89271        2.90474        4.55095
H          9.36014        1.87289        6.75480
H         10.92803       -0.04279        6.91674
H         12.04634       -0.91050        4.89491
C          9.92470       -3.33598       -0.15838
C          9.59350       -4.75726       -0.76400
C          8.28975       -5.15171       -1.51101
C          7.83921       -4.24740       -2.64438
H          7.60875       -3.28000       -2.22031
C          6.55375       -4.57076       -3.38009
C          5.42660       -5.10619       -2.74646
C          4.21667       -5.22342       -3.43315
C          4.12501       -4.80160       -4.75195
C          5.22633       -4.24205       -5.38977
C          6.43038       -4.11331       -4.69831
C         10.20096       -2.28923       -1.24744
C         11.50998       -2.07619       -1.70794
C         11.79191       -1.18330       -2.75260
C         10.74148       -0.55608       -3.41589
C          9.44179       -0.76581       -2.97947
C          9.18863       -1.53909       -1.84394
H         10.93703       -3.53439        0.23196
H          9.71159       -5.47963        0.05403
H         10.40855       -4.99905       -1.46295
H          7.46831       -5.26377       -0.82010
H          8.41946       -6.17217       -1.89630
H          8.66144       -4.15221       -3.36197
H          5.45507       -5.39862       -1.70389
H          3.34240       -5.62264       -2.92654
H          3.17676       -4.88625       -5.28709
H          5.14782       -3.88194       -6.40977
H          7.26960       -3.61938       -5.18408
H         12.34290       -2.58337       -1.23445
H         12.81300       -0.97575       -3.02941
H         10.93987        0.06416       -4.28206
H          8.60772       -0.32442       -3.51815
H          8.17128       -1.59643       -1.46732
